# Name: PHE
# Created by ModelServer 0.9.10

# model_server_result.job_id: uUejYUdG4yEOmlUokHJFQA
# model_server_result.datetime_utc: 2023-10-17 12:25:32
# model_server_result.server_version: 0.9.10
# model_server_result.query_name: ligand
# model_server_result.source_id: pdb-bcif
# model_server_result.entry_id: 6yu3

# model_server_params.name: atom_site
# model_server_params.value: {"label_asym_id":"D","auth_seq_id":703}

# model_server_stats.io_time_ms: 46
# model_server_stats.parse_time_ms: 79
# model_server_stats.create_model_time_ms: 15
# model_server_stats.query_time_ms: 275
# model_server_stats.encode_time_ms: 0
# model_server_stats.element_count: 12

@<TRIPOS>MOLECULE
PHE
12 12 1
****
****

@<TRIPOS>ATOM
1 N 40.304 22.956 137.232 N.2 1 PHE 0.000
2 CA 39.590 23.529 136.130 C.3 1 PHE 0.000
3 C 40.388 24.690 135.528 C.2 1 PHE 0.000
4 O 40.134 25.094 134.350 O.2 1 PHE 0.000
5 CB 38.191 24.021 136.585 C.3 1 PHE 0.000
6 CG 37.404 22.852 137.279 C.ar 1 PHE 0.000
7 CD1 37.306 21.610 136.655 C.ar 1 PHE 0.000
8 CD2 36.792 23.060 138.520 C.ar 1 PHE 0.000
9 CE1 36.606 20.579 137.267 C.ar 1 PHE 0.000
10 CE2 36.093 22.031 139.127 C.ar 1 PHE 0.000
11 CZ 35.999 20.782 138.503 C.ar 1 PHE 0.000
12 OXT 41.304 25.256 136.199 O.3 1 PHE 0.000
@<TRIPOS>BOND
1 1 2 1
2 2 3 1
3 2 5 1
4 3 4 2
5 3 12 1
6 5 6 1
7 6 7 ar
8 6 8 ar
9 7 9 ar
10 8 10 ar
11 9 11 ar
12 10 11 ar
@<TRIPOS>SUBSTRUCTURE
1 PHE 1

